Version 4
SHEET 1 880 680
WIRE 16 -32 16 0
WIRE 16 64 144 64
WIRE 144 64 176 64
WIRE 144 128 144 160
FLAG 16 -32 IN
IOPIN 16 -32 In
FLAG 176 64 OUT
IOPIN 176 64 Out
FLAG 144 160 0
SYMBOL res 0 0 R0
SYMATTR InstName R1
SYMATTR Value 10k
SYMBOL cap 128 64 R0
SYMATTR InstName C1
SYMATTR Value 47n
TEXT 0 176 Left 2 !.tran 100m
TEXT 0 208 Left 2 ;RC low-pass fixture
